36

C       1.025592070000000     -3.631233450000000     -0.000000000000000
B       2.258647950000000     -3.022570240000000     -0.000000040000000
C       2.382437760000000     -1.590702230000000      0.000000010000000
B       1.196694910000000     -0.799043880000000      0.000000010000000
C      -0.093577410000000     -1.435953310000000     -0.000000030000000
N      -0.186286820000000     -2.858669890000000     -0.000000020000000
B      -1.488232930000000     -3.467419150000000      0.000000060000000
B      -2.631820570000000     -2.703892210000000     -0.000000010000000
N      -2.568725910000000     -1.268059440000000     -0.000000050000000
B      -1.290255900000000     -0.636980420000000     -0.000000040000000
C      -1.196697150000000      0.798868950000000     -0.000000030000000
B      -2.382437350000000      1.590532060000000     -0.000000100000000
N      -3.657438300000000      0.927223910000000      0.000000020000000
N      -3.746847190000000     -0.444952560000000     -0.000000010000000
C      -2.258640270000000      3.022396620000000     -0.000000080000000
C      -1.025580260000000      3.631058750000000     -0.000000090000000
N       0.186292250000000      2.858495130000000     -0.000000010000000
C       0.093575350000000      1.435778330000000      0.000000010000000
B       1.290252580000000      0.636804580000000      0.000000020000000
N       2.568717420000000      1.267896230000000     -0.000000040000000
C       3.746834630000000      0.444794440000000     -0.000000030000000
C       3.657429200000000     -0.927385380000000     -0.000000040000000
N       2.631818700000000      2.703732270000000      0.000000030000000
C       1.488236800000000      3.467257350000000      0.000000090000000
H       0.947706750000000     -4.724290280000000      0.000000030000000
H       3.173708950000000     -3.625484070000000      0.000000000000000
H      -1.552792820000000     -4.561346810000000      0.000000030000000
H      -3.617404410000000     -3.182918670000000      0.000000060000000
H      -4.565119750000000      1.541197660000000      0.000000090000000
H      -4.726516640000000     -0.935966710000000      0.000000010000000
H      -3.173697760000000      3.625315920000000      0.000000010000000
H      -0.947692910000000      4.724115580000000      0.000000020000000
H       4.726504820000000      0.935808170000000      0.000000060000000
H       4.565116500000000     -1.541349510000000     -0.000000040000000
H       3.617404130000000      3.182755670000000      0.000000040000000
H       1.552793590000000      4.561186580000000      0.000000040000000
